Version 4
SHEET 1 1312 828
WIRE 352 112 352 48
WIRE -208 128 -208 48
WIRE -208 240 -208 208
WIRE -208 240 -288 240
WIRE 352 240 352 192
WIRE 416 240 352 240
WIRE 624 240 480 240
WIRE -208 272 -208 240
WIRE -208 288 -208 272
WIRE 352 304 352 240
WIRE 256 384 176 384
WIRE 288 384 256 384
WIRE 304 384 288 384
WIRE 352 400 352 384
WIRE -208 432 -208 352
WIRE 16 432 16 384
WIRE -208 448 -208 432
WIRE 352 448 352 400
WIRE 16 576 16 512
WIRE 352 672 352 528
FLAG 16 576 0
FLAG 624 320 0
FLAG -208 432 Vss
FLAG -208 48 Vdd
FLAG -288 240 0
FLAG 352 48 Vdd
FLAG 624 240 Vout
FLAG 16 384 Vin
FLAG 352 752 Vss
FLAG 352 240 VD
FLAG 176 464 0
FLAG 256 464 0
FLAG 288 384 Vtest_in
SYMBOL nmos4 304 304 R0
SYMATTR InstName M1
SYMATTR Value2 l=0.18u w=0.18u
SYMBOL Voltage -208 112 R0
SYMATTR InstName V1
SYMATTR Value 9
SYMBOL Voltage -208 256 R0
SYMATTR InstName V2
SYMATTR Value 9
SYMBOL Res 336 656 R0
SYMATTR InstName R2
SYMATTR Value 19.8k
SYMBOL Voltage 16 416 R0
WINDOW 123 24 118 Left 2
SYMATTR Value2 AC 0
SYMATTR InstName V3
SYMATTR Value 0
SYMBOL Res 608 224 R0
SYMATTR InstName R3
SYMATTR Value 47k
SYMBOL Res 336 96 R0
SYMATTR InstName R4
SYMATTR Value 20k
SYMBOL Res 336 432 R0
SYMATTR InstName R5
SYMATTR Value 15k
SYMBOL Voltage 176 368 R0
WINDOW 123 24 118 Left 2
SYMATTR InstName V4
SYMATTR Value 0
SYMATTR Value2 AC 1
SYMBOL Res 240 368 R0
SYMATTR InstName R1
SYMATTR Value 1.5Meg
TEXT 544 376 Left 2 !.MODEL NMOS NMOS (Kp=0.5m Vt0=1.65)
TEXT 1048 616 Left 2 !.ac dec 100 10 100Meg
